Version 4
SHEET 1 1536 824
WIRE 992 -320 848 -320
WIRE 848 -304 848 -320
WIRE 992 -288 992 -320
WIRE -208 -224 -288 -224
WIRE 960 -224 848 -224
WIRE 1168 -224 1040 -224
WIRE -288 -208 -288 -224
WIRE -208 -192 -208 -224
WIRE 592 -192 560 -192
WIRE 688 -192 656 -192
WIRE 928 -160 928 -176
WIRE 256 -128 -32 -128
WIRE 336 -128 256 -128
WIRE 336 -112 336 -128
WIRE 688 -112 688 -128
WIRE 688 -112 560 -112
WIRE 752 -112 688 -112
WIRE 848 -112 848 -224
WIRE 912 -112 848 -112
WIRE -928 -96 -1008 -96
WIRE -784 -96 -928 -96
WIRE -736 -96 -784 -96
WIRE -624 -96 -656 -96
WIRE -576 -96 -624 -96
WIRE -480 -96 -512 -96
WIRE -416 -96 -480 -96
WIRE -352 -96 -416 -96
WIRE -288 -96 -288 -128
WIRE -224 -96 -288 -96
WIRE -160 -96 -224 -96
WIRE -32 -96 -32 -128
WIRE -32 -96 -160 -96
WIRE -288 -80 -288 -96
WIRE 752 -80 752 -112
WIRE 1136 -80 1072 -80
WIRE 1168 -80 1168 -224
WIRE 1168 -80 1136 -80
WIRE -1008 -64 -1008 -96
WIRE -480 -64 -480 -96
WIRE -32 -64 -32 -96
WIRE 576 -64 560 -64
WIRE 688 -64 576 -64
WIRE 688 -64 688 -112
WIRE 1168 -64 1168 -80
WIRE -784 -48 -784 -96
WIRE -624 -48 -624 -96
WIRE -416 -48 -416 -96
WIRE 912 -48 848 -48
WIRE -224 0 -224 -16
WIRE -192 0 -224 0
WIRE 160 0 128 0
WIRE 336 0 336 -32
WIRE 336 0 240 0
WIRE -928 16 -928 -96
WIRE -352 16 -352 -96
WIRE -224 16 -224 0
WIRE 688 16 688 0
WIRE 688 16 560 16
WIRE 928 16 928 0
WIRE -1008 32 -1008 16
WIRE -480 48 -480 16
WIRE -480 48 -544 48
WIRE -416 48 -416 16
WIRE -416 48 -480 48
WIRE 1168 48 1168 16
WIRE -480 64 -480 48
WIRE 848 64 848 -48
WIRE 1168 64 1168 48
WIRE -928 80 -928 64
WIRE 336 80 336 0
WIRE 336 80 128 80
WIRE 304 160 128 160
WIRE -928 176 -928 80
WIRE -704 176 -704 144
WIRE -704 176 -928 176
WIRE -480 176 -480 144
WIRE -480 176 -704 176
WIRE -352 176 -352 80
WIRE -352 176 -480 176
WIRE 304 176 304 160
WIRE 848 176 848 144
WIRE -192 240 -288 240
WIRE 208 240 128 240
WIRE -288 256 -288 240
WIRE 208 304 208 288
WIRE -32 400 -32 304
WIRE -32 400 -288 400
WIRE 208 400 208 304
WIRE 208 400 -32 400
WIRE -32 432 -32 400
FLAG -288 -32 0
FLAG 304 256 0
FLAG -160 -96 Vin
FLAG 688 -192 V+
FLAG 688 16 V-
FLAG 1136 -80 Out
FLAG 848 176 0
FLAG 992 -288 0
FLAG 752 -80 0
FLAG -32 432 0
FLAG 928 -176 V+
FLAG 928 16 V-
FLAG -1008 32 0
FLAG -224 96 0
FLAG -208 -192 0
FLAG 1168 64 0
FLAG 1168 48 OGND
FLAG 256 -64 k0
FLAG 256 -128 k1
FLAG 576 -64 Vk
SYMBOL cap -304 -96 R0
SYMATTR InstName C1
SYMATTR Value 2.2µF
SYMBOL res 288 160 R0
SYMATTR InstName R1
SYMATTR Value 10k
SYMBOL res -304 240 R0
SYMATTR InstName R2
SYMATTR Value 24k
SYMBOL cap -304 336 R0
SYMATTR InstName C2
SYMATTR Value 2.2nF
SYMBOL cap 192 240 R0
SYMATTR InstName C3
SYMATTR Value 4.7µF
SYMBOL zener 240 -128 R0
SYMATTR InstName D2
SYMATTR Value EDZV20B
SYMBOL ind2 320 -128 R0
SYMATTR InstName L1
SYMATTR Value 80µH
SYMATTR Type ind
SYMATTR SpiceLine Rser=0.325
SYMBOL cap 672 -64 R0
WINDOW 0 24 8 Invisible 2
SYMATTR InstName C4
SYMATTR Value 470n
SYMATTR SpiceLine V=100 Rser=50.1m Lser=0 mfg="KEMET" pn="C1812C474K1RAC" type="X7R"
SYMBOL cap 672 -192 R0
WINDOW 0 24 8 Invisible 2
SYMATTR InstName C5
SYMATTR Value 470n
SYMATTR SpiceLine V=100 Rser=50.1m Lser=0 mfg="KEMET" pn="C1812C474K1RAC" type="X7R"
SYMBOL Opamps/LTC6090 976 -80 R0
SYMATTR InstName U3
SYMBOL ind2 576 -96 R180
WINDOW 0 36 80 Left 2
WINDOW 3 36 40 Left 2
SYMATTR InstName L2
SYMATTR Value 2000µH
SYMATTR Type ind
SYMATTR SpiceLine Rser=8.7
SYMBOL ind2 576 32 R180
WINDOW 0 36 80 Left 2
WINDOW 3 36 40 Left 2
SYMATTR InstName L3
SYMATTR Value 2000µH
SYMATTR Type ind
SYMATTR SpiceLine Rser=8.7
SYMBOL Misc/signal 848 48 R0
SYMATTR InstName V3
SYMATTR Value SINE(0 6 50k)
SYMBOL res 832 -320 R0
SYMATTR InstName R7
SYMATTR Value 10k
SYMBOL res 1056 -240 R90
WINDOW 0 0 56 VBottom 2
WINDOW 3 32 56 VTop 2
SYMATTR InstName R8
SYMATTR Value 120k
SYMBOL schottky 592 -176 R270
WINDOW 0 32 32 VTop 2
WINDOW 3 0 32 VBottom 2
SYMATTR InstName D3
SYMATTR Value BAT46WJ
SYMATTR Description Diode
SYMATTR Type diode
SYMBOL res 256 -16 R90
WINDOW 0 0 56 VBottom 2
WINDOW 3 32 56 VTop 2
SYMATTR InstName R5
SYMATTR Value 100k
SYMBOL PowerProducts/LT1930 -704 48 R0
SYMATTR InstName U2
SYMBOL ind -640 -112 R90
WINDOW 0 5 56 VBottom 2
WINDOW 3 32 56 VTop 2
SYMATTR InstName L4
SYMATTR Value 10µH
SYMBOL schottky -576 -80 R270
WINDOW 0 32 32 VTop 2
WINDOW 3 0 32 VBottom 2
SYMATTR InstName D5
SYMATTR Value MBR0520L
SYMATTR Description Diode
SYMATTR Type diode
SYMBOL res -496 -80 R0
SYMATTR InstName R3
SYMATTR Value 113k
SYMBOL cap -432 -48 R0
SYMATTR InstName C7
SYMATTR Value 10pF
SYMBOL cap -368 16 R0
SYMATTR InstName C8
SYMATTR Value 4.7µF
SYMBOL cap -944 16 R0
SYMATTR InstName C9
SYMATTR Value 2.2µF
SYMBOL voltage -1008 -80 R0
SYMATTR InstName V1
SYMATTR Value 5V
SYMBOL res -496 48 R0
SYMATTR InstName R4
SYMATTR Value 13.3k
SYMBOL res -240 -112 R0
SYMATTR InstName R6
SYMATTR Value 1m
SYMBOL res -240 0 R0
SYMATTR InstName R9
SYMATTR Value 550k
SYMBOL voltage -288 -112 R180
WINDOW 0 24 96 Left 2
WINDOW 3 24 16 Left 2
SYMATTR InstName V2
SYMATTR Value 12V
SYMATTR SpiceLine Rser=0
SYMBOL PowerProducts/LT3512 -32 112 R0
SYMATTR InstName U4
SYMBOL res 1152 -80 R0
SYMATTR InstName R10
SYMATTR Value 1750
TEXT 280 -176 Left 2 !K1 L1 L2 L3 1
TEXT -416 424 Left 2 !.tran 1 startup uic
