Version 4
SHEET 1 984 864
WIRE 352 -96 352 -112
WIRE 352 -80 352 -96
WIRE 688 -80 688 -96
WIRE 352 32 352 0
WIRE 688 32 688 0
WIRE -256 48 -336 48
WIRE -128 48 -256 48
WIRE -96 48 -128 48
WIRE -80 48 -96 48
WIRE -928 64 -1072 64
WIRE -912 64 -928 64
WIRE -816 64 -848 64
WIRE -720 64 -816 64
WIRE -656 64 -720 64
WIRE -624 64 -656 64
WIRE -928 80 -928 64
WIRE -816 80 -816 64
WIRE -720 80 -720 64
WIRE -128 96 -128 48
WIRE 336 96 304 96
WIRE 480 96 416 96
WIRE -1072 112 -1072 64
WIRE -256 112 -256 48
WIRE -256 112 -336 112
WIRE 720 128 688 128
WIRE 688 144 688 128
WIRE -928 160 -928 144
WIRE -816 160 -816 144
WIRE -720 160 -720 144
WIRE -656 160 -656 64
WIRE -624 160 -656 160
WIRE -256 176 -336 176
WIRE -128 176 -128 160
WIRE 416 176 416 160
WIRE 112 192 64 192
WIRE 208 192 176 192
WIRE 304 192 304 96
WIRE 304 192 288 192
WIRE 384 192 304 192
WIRE 720 192 720 128
WIRE 480 208 480 96
WIRE 480 208 448 208
WIRE 496 208 480 208
WIRE 608 208 576 208
WIRE 688 208 608 208
WIRE -1072 224 -1072 192
WIRE 384 224 352 224
WIRE 608 224 608 208
WIRE 784 224 752 224
WIRE 800 224 784 224
WIRE 816 224 800 224
WIRE 688 240 656 240
WIRE -480 256 -480 224
WIRE 416 272 416 240
WIRE 720 272 720 256
WIRE 608 304 608 288
WIRE 192 320 192 272
WIRE 656 320 656 240
WIRE 784 320 784 224
WIRE 784 320 656 320
WIRE -1072 336 -1072 304
WIRE 192 448 192 400
WIRE 288 448 192 448
WIRE 352 448 352 224
WIRE 352 448 288 448
WIRE 192 496 192 448
WIRE 288 496 288 448
WIRE 192 608 192 576
WIRE 288 608 288 560
FLAG 288 608 0
FLAG 192 608 0
FLAG 192 272 Vcc
FLAG -1072 336 0
FLAG 64 192 Vin_ac
FLAG 352 32 0
FLAG -928 160 0
FLAG -816 160 0
FLAG -720 160 0
FLAG -480 256 0
FLAG -96 48 Vcc
FLAG -128 176 0
FLAG 688 32 0
FLAG 416 272 0
FLAG 416 160 Vcc
FLAG 688 -96 Vin_ac
FLAG 352 -96 Vin
FLAG 608 304 0
FLAG 720 272 Vcc
FLAG 688 144 0
FLAG 800 224 Vo
SYMBOL cap 272 496 R0
SYMATTR InstName C4
SYMATTR Value 22µF
SYMBOL res 176 480 R0
SYMATTR InstName R4
SYMATTR Value 10k
SYMBOL res 176 304 R0
SYMATTR InstName R5
SYMATTR Value 10k
SYMBOL voltage -1072 96 R0
SYMATTR InstName V1
SYMATTR Value 5
SYMBOL bv -1072 208 R0
SYMATTR InstName B1
SYMATTR Value V=0.5*white(2e3*time)
SYMBOL cap 176 176 R90
WINDOW 0 0 32 VBottom 2
WINDOW 3 32 32 VTop 2
SYMATTR InstName C5
SYMATTR Value 1µF
SYMBOL Misc/signal 352 -96 R0
SYMATTR InstName V2
SYMATTR Value SINE(2.5 0.01 50k)
SYMBOL Opamps/LT1677 416 144 R0
SYMATTR InstName U1
SYMBOL FerriteBead -880 64 R90
WINDOW 0 -16 0 VBottom 2
SYMATTR InstName L1
SYMATTR Value 435n
SYMATTR SpiceLine Ipk=200m Rser=24m Rpar=302 Cpar=1.5p mfg="Wurth Elektronik" pn="742 792 038"
SYMBOL cap -944 80 R0
SYMATTR InstName C6
SYMATTR Value 10nF
SYMBOL cap -832 80 R0
SYMATTR InstName C7
SYMATTR Value 100nF
SYMBOL cap -736 80 R0
SYMATTR InstName C8
SYMATTR Value 10µF
SYMBOL cap -272 112 R0
SYMATTR InstName C9
SYMATTR Value 0.01µF
SYMBOL cap -144 96 R0
SYMATTR InstName C10
SYMATTR Value 10µF
SYMBOL PowerProducts/LT1962-3.3 -480 112 R0
SYMATTR InstName U3
SYMBOL voltage 688 -96 R0
SYMATTR InstName V3
SYMATTR Value ""
SYMATTR Value2 AC 1
SYMBOL res 304 176 R90
WINDOW 0 0 56 VBottom 2
WINDOW 3 32 56 VTop 2
SYMATTR InstName R1
SYMATTR Value 500
SYMBOL res 432 80 R90
WINDOW 0 0 56 VBottom 2
WINDOW 3 32 56 VTop 2
SYMATTR InstName R2
SYMATTR Value {Rf}
SYMBOL Opamps/LT1677 720 288 M180
SYMATTR InstName U2
SYMBOL res 592 192 R90
WINDOW 0 0 56 VBottom 2
WINDOW 3 32 56 VTop 2
SYMATTR InstName R3
SYMATTR Value 1.2k
SYMBOL cap 592 224 R0
SYMATTR InstName C1
SYMATTR Value 1nF
TEXT 56 -16 Left 2 !* .tran 0.01s\n.ac oct 100 1 3000k
TEXT -8 -80 Left 2 !.step param Rf 500 10k 500
