Version 4
SHEET 1 984 864
WIRE 352 -80 352 -112
WIRE 688 -80 688 -96
WIRE 352 32 352 0
WIRE 688 32 688 0
WIRE -256 48 -336 48
WIRE -128 48 -256 48
WIRE -96 48 -128 48
WIRE -80 48 -96 48
WIRE -928 64 -1072 64
WIRE -912 64 -928 64
WIRE -816 64 -848 64
WIRE -720 64 -816 64
WIRE -656 64 -720 64
WIRE -624 64 -656 64
WIRE -928 80 -928 64
WIRE -816 80 -816 64
WIRE -720 80 -720 64
WIRE -128 96 -128 48
WIRE 128 96 80 96
WIRE 288 96 192 96
WIRE -1072 112 -1072 64
WIRE -256 112 -256 48
WIRE -256 112 -336 112
WIRE 416 112 384 112
WIRE 800 112 768 112
WIRE 384 128 384 112
WIRE 768 128 768 112
WIRE -928 160 -928 144
WIRE -816 160 -816 144
WIRE -720 160 -720 144
WIRE -656 160 -656 64
WIRE -624 160 -656 160
WIRE -256 176 -336 176
WIRE -128 176 -128 160
WIRE 416 176 416 112
WIRE 288 192 288 96
WIRE 384 192 288 192
WIRE 800 192 800 112
WIRE 528 208 448 208
WIRE 576 208 528 208
WIRE 688 208 656 208
WIRE 768 208 688 208
WIRE -1072 224 -1072 192
WIRE 384 224 352 224
WIRE 864 224 832 224
WIRE 944 224 864 224
WIRE 960 224 944 224
WIRE 688 240 688 208
WIRE 768 240 752 240
WIRE -480 256 -480 224
WIRE 288 256 288 192
WIRE 416 272 416 240
WIRE 800 272 800 256
WIRE 688 320 688 304
WIRE -1072 336 -1072 304
WIRE -32 336 -32 288
WIRE 752 336 752 240
WIRE 864 336 864 224
WIRE 864 336 752 336
WIRE 352 352 352 224
WIRE 400 352 352 352
WIRE 528 352 528 208
WIRE 528 352 480 352
WIRE -32 464 -32 416
WIRE 64 464 -32 464
WIRE 128 464 64 464
WIRE 288 464 288 336
WIRE 288 464 208 464
WIRE 352 496 352 352
WIRE -32 512 -32 464
WIRE 64 512 64 464
WIRE 288 512 288 464
WIRE 352 608 352 576
WIRE -32 624 -32 592
WIRE 64 624 64 576
WIRE 288 624 288 576
WIRE 352 688 352 672
FLAG 288 624 0
FLAG 64 624 0
FLAG -32 624 0
FLAG -32 288 Vcc
FLAG -1072 336 0
FLAG 80 96 Vin
FLAG 352 32 0
FLAG 528 208 Vmid
FLAG 352 688 0
FLAG -928 160 0
FLAG -816 160 0
FLAG -720 160 0
FLAG 384 128 0
FLAG 416 272 Vcc
FLAG -480 256 0
FLAG -96 48 Vcc
FLAG -128 176 0
FLAG 688 32 0
FLAG 688 -96 Vin
FLAG 768 128 0
FLAG 800 272 Vcc
FLAG 688 320 0
FLAG 944 224 Vout
SYMBOL res 496 336 R90
WINDOW 0 0 56 VBottom 2
WINDOW 3 32 56 VTop 2
SYMATTR InstName R1
SYMATTR Value {Rf}
SYMBOL res 272 240 R0
SYMATTR InstName R2
SYMATTR Value 10k
SYMBOL cap 272 512 R0
SYMATTR InstName C3
SYMATTR Value 10µF
SYMBOL res 224 448 R90
WINDOW 0 0 56 VBottom 2
WINDOW 3 32 56 VTop 2
SYMATTR InstName R3
SYMATTR Value 10k
SYMBOL cap 48 512 R0
SYMATTR InstName C4
SYMATTR Value 22µF
SYMBOL res -48 496 R0
SYMATTR InstName R4
SYMATTR Value 10k
SYMBOL res -48 320 R0
SYMATTR InstName R5
SYMATTR Value 10k
SYMBOL voltage -1072 96 R0
SYMATTR InstName V1
SYMATTR Value 5
SYMBOL bv -1072 208 R0
SYMATTR InstName B1
SYMATTR Value V=0.5*white(2e3*time)
SYMBOL cap 192 80 R90
WINDOW 0 0 32 VBottom 2
WINDOW 3 32 32 VTop 2
SYMATTR InstName C5
SYMATTR Value 1µF
SYMBOL Misc/signal 352 -96 R0
SYMATTR InstName V2
SYMATTR Value SINE(2.5 0.01 50k)
SYMBOL Opamps/LT1677 416 272 M180
SYMATTR InstName U1
SYMBOL res 336 480 R0
SYMATTR InstName R6
SYMATTR Value 500
SYMBOL cap 336 608 R0
SYMATTR InstName C2
SYMATTR Value 3.3µ
SYMBOL FerriteBead -880 64 R90
WINDOW 0 -16 0 VBottom 2
SYMATTR InstName L1
SYMATTR Value 435n
SYMATTR SpiceLine Ipk=200m Rser=24m Rpar=302 Cpar=1.5p mfg="Wurth Elektronik" pn="742 792 038"
SYMBOL cap -944 80 R0
SYMATTR InstName C6
SYMATTR Value 10nF
SYMBOL cap -832 80 R0
SYMATTR InstName C7
SYMATTR Value 100nF
SYMBOL cap -736 80 R0
SYMATTR InstName C8
SYMATTR Value 10µF
SYMBOL cap -272 112 R0
SYMATTR InstName C9
SYMATTR Value 0.01µF
SYMBOL cap -144 96 R0
SYMATTR InstName C10
SYMATTR Value 10µF
SYMBOL PowerProducts/LT1962-3.3 -480 112 R0
SYMATTR InstName U3
SYMBOL voltage 688 -96 R0
SYMATTR InstName V3
SYMATTR Value ""
SYMATTR Value2 AC 1
SYMBOL Opamps/LT1677 800 288 M180
SYMATTR InstName U2
SYMBOL res 672 192 R90
WINDOW 0 0 56 VBottom 2
WINDOW 3 32 56 VTop 2
SYMATTR InstName R7
SYMATTR Value 750
SYMBOL cap 672 240 R0
SYMATTR InstName C1
SYMATTR Value 1nF
TEXT 56 -16 Left 2 !.ac oct 100 1 1000k
TEXT -8 -80 Left 2 !.step param Rf 500 10k 500
