Version 4
SHEET 1 1076 1136
WIRE 464 112 384 112
WIRE 480 112 464 112
WIRE 272 128 224 128
WIRE 272 144 272 128
WIRE 384 144 384 112
WIRE 800 176 800 128
WIRE 480 208 480 176
WIRE 736 224 688 224
WIRE 224 256 224 128
WIRE 272 256 224 256
WIRE 384 256 384 224
WIRE 384 256 352 256
WIRE 464 256 384 256
WIRE 656 288 624 288
WIRE 688 288 688 224
WIRE 688 288 656 288
WIRE 800 288 800 272
WIRE 800 288 768 288
WIRE 896 288 800 288
WIRE 960 288 896 288
WIRE 800 304 800 288
WIRE 464 320 224 320
WIRE 688 352 688 288
WIRE 736 352 688 352
WIRE 960 352 960 288
WIRE 480 384 480 368
WIRE 480 400 480 384
WIRE 800 448 800 400
WIRE 800 464 800 448
WIRE 960 464 960 416
WIRE 960 608 960 544
WIRE 240 704 176 704
WIRE 272 704 240 704
WIRE 512 704 416 704
WIRE 512 720 512 704
WIRE 176 736 176 704
WIRE 272 736 272 704
WIRE 416 736 416 704
WIRE 576 800 512 800
WIRE 128 816 112 816
WIRE 176 816 128 816
WIRE 512 816 512 800
WIRE 272 848 272 816
WIRE 352 848 272 848
WIRE 416 848 416 816
WIRE 416 848 352 848
WIRE 352 944 352 848
FLAG 480 176 V+
FLAG -128 672 0
FLAG -128 592 Vi
FLAG 272 144 0
FLAG 480 384 V-
FLAG 224 320 Vi
FLAG 176 880 0
FLAG 128 816 V+
FLAG 512 880 0
FLAG 576 800 V-
FLAG 800 448 V-
FLAG 464 112 Vfb
FLAG 800 128 V+
FLAG 896 288 Vo
FLAG 656 288 Vfb
FLAG 112 880 0
FLAG 576 864 0
FLAG 352 944 0
FLAG 240 704 Va
FLAG 960 608 0
SYMBOL Opamps/LTC6090 528 288 R0
SYMATTR InstName U1
SYMBOL voltage 272 720 R0
SYMATTR InstName V1
SYMATTR Value 150
SYMATTR SpiceLine Rser=2k
SYMBOL Misc/signal -128 576 R0
SYMATTR InstName V2
SYMATTR Value SINE(0 2 50k)
SYMBOL res 368 128 R0
SYMATTR InstName Rg
SYMATTR Value 500k
SYMBOL res 368 240 R90
WINDOW 0 0 56 VBottom 2
WINDOW 3 32 56 VTop 2
SYMATTR InstName Rf
SYMATTR Value 5k
SYMBOL voltage 416 720 R0
SYMATTR InstName V3
SYMATTR Value -150
SYMATTR SpiceLine Rser=2k
SYMBOL zener 192 880 R180
WINDOW 0 24 64 Left 2
WINDOW 3 24 0 Left 2
SYMATTR InstName D1
SYMATTR Value 1N5373B
SYMBOL res 160 720 R0
SYMATTR InstName R1
SYMATTR Value 50
SYMBOL zener 496 816 R0
SYMATTR InstName D2
SYMATTR Value 1N5373B
SYMBOL res 528 816 R180
WINDOW 0 36 76 Left 2
WINDOW 3 36 40 Left 2
SYMATTR InstName R2
SYMATTR Value 50
SYMBOL pnp 736 400 M180
SYMATTR InstName Q1
SYMBOL npn 736 176 R0
SYMATTR InstName Q2
SYMBOL res 784 272 R90
WINDOW 0 0 56 VBottom 2
WINDOW 3 32 56 VTop 2
SYMATTR InstName R3
SYMATTR Value 10k
SYMBOL cap 96 816 R0
SYMATTR InstName C1
SYMATTR Value .15µF
SYMBOL cap 560 800 R0
SYMATTR InstName C2
SYMATTR Value .01µF
SYMBOL cap 944 352 R0
SYMATTR InstName C3
SYMATTR Value 1nF
SYMBOL res 944 448 R0
SYMATTR InstName R4
SYMATTR Value 20
TEXT 816 72 Left 2 !.tran 1 startup uic
