Version 4
SHEET 1 1384 680
WIRE 1184 96 1184 80
WIRE 384 128 272 128
WIRE 800 144 672 144
WIRE 960 144 880 144
WIRE 384 176 384 128
WIRE 752 192 752 176
WIRE 1184 192 1184 96
WIRE 256 208 112 208
WIRE 272 208 272 128
WIRE 272 208 256 208
WIRE 272 224 272 208
WIRE 752 224 752 192
WIRE 1120 240 1008 240
WIRE 384 256 384 240
WIRE 112 272 112 208
WIRE 544 272 512 272
WIRE 672 272 672 144
WIRE 672 272 624 272
WIRE 736 272 672 272
WIRE 960 304 960 144
WIRE 960 304 896 304
WIRE 1008 304 1008 240
WIRE 1008 304 960 304
WIRE 1024 304 1008 304
WIRE 1184 304 1184 288
WIRE 1184 304 1104 304
WIRE 1264 304 1184 304
WIRE 1312 304 1264 304
WIRE 272 320 272 304
WIRE 400 320 272 320
WIRE 1184 320 1184 304
WIRE 512 336 512 272
WIRE 736 336 608 336
WIRE 1008 368 1008 304
WIRE 1120 368 1008 368
WIRE 1312 368 1312 304
WIRE 608 416 608 336
WIRE 752 416 752 384
WIRE 112 432 112 352
WIRE 208 432 112 432
WIRE 272 432 272 400
WIRE 272 432 208 432
WIRE 400 432 400 320
WIRE 752 432 752 416
WIRE 272 496 272 432
WIRE 1184 544 1184 416
WIRE 1312 544 1312 448
WIRE 608 576 608 496
WIRE 272 592 272 560
FLAG 400 432 0
FLAG 256 208 V+
FLAG 208 432 V-
FLAG 752 416 V-
FLAG 752 192 V+
FLAG 608 576 0
FLAG 272 592 0
FLAG 384 256 0
FLAG 1184 544 V-
FLAG 1184 96 V+
FLAG 1312 544 0
FLAG 1264 304 Vo
FLAG 512 336 0
SYMBOL voltage 112 256 R0
SYMATTR InstName V1
SYMATTR Value 135V
SYMATTR SpiceLine Rser=2k
SYMBOL res 256 208 R0
SYMATTR InstName R1
SYMATTR Value 100k
SYMBOL res 256 304 R0
SYMATTR InstName R2
SYMATTR Value 100k
SYMBOL Opamps/LTC6090-5 800 304 R0
SYMATTR InstName U1
SYMBOL Misc/signal 608 400 R0
SYMATTR InstName V2
SYMATTR Value SINE(0 1 10K)
SYMBOL cap 256 496 R0
SYMATTR InstName C1
SYMATTR Value 47µF
SYMBOL cap 368 176 R0
SYMATTR InstName C2
SYMATTR Value 47µF
SYMBOL npn 1120 192 R0
SYMATTR InstName Q1
SYMBOL pnp 1120 416 M180
SYMATTR InstName Q2
SYMBOL res 1120 288 R90
WINDOW 0 0 56 VBottom 2
WINDOW 3 32 56 VTop 2
SYMATTR InstName R3
SYMATTR Value 1k
SYMBOL res 1296 352 R0
SYMATTR InstName R4
SYMATTR Value 10k
SYMBOL res 896 128 R90
WINDOW 0 0 56 VBottom 2
WINDOW 3 32 56 VTop 2
SYMATTR InstName R5
SYMATTR Value 680k
SYMBOL res 640 256 R90
WINDOW 0 0 56 VBottom 2
WINDOW 3 32 56 VTop 2
SYMATTR InstName R6
SYMATTR Value 10k
TEXT 560 40 Left 2 !.tran 0.1 startup uic
