Version 4
SHEET 1 1264 680
WIRE 576 64 576 32
WIRE 576 80 576 64
WIRE 512 128 416 128
WIRE 240 144 240 128
WIRE 240 176 240 144
WIRE 1056 208 1056 192
WIRE 1184 208 1184 192
WIRE 144 224 96 224
WIRE 224 224 144 224
WIRE 1056 224 1056 208
WIRE 1184 224 1184 208
WIRE 416 256 416 128
WIRE 416 256 384 256
WIRE 464 256 416 256
WIRE 576 256 576 176
WIRE 576 256 544 256
WIRE 688 256 576 256
WIRE 736 256 688 256
WIRE 752 256 736 256
WIRE 176 288 96 288
WIRE 224 288 176 288
WIRE 576 336 576 256
WIRE 688 336 688 256
WIRE 1056 336 1056 304
WIRE 1184 336 1184 304
WIRE 240 368 240 336
WIRE 96 384 96 288
WIRE 240 384 240 368
WIRE 416 384 416 256
WIRE 432 384 416 384
WIRE 512 384 432 384
WIRE 688 464 688 400
WIRE 576 480 576 432
WIRE 576 496 576 480
WIRE 96 512 96 464
FLAG 176 288 in
FLAG 96 512 0
FLAG 736 256 out
FLAG 432 384 fb
FLAG 1056 336 0
FLAG 1056 208 Vcc+
FLAG 1184 336 0
FLAG 1184 208 Vcc-
FLAG 576 64 Vcc+
FLAG 576 480 Vcc-
FLAG 240 144 Vcc+
FLAG 240 368 Vcc-
FLAG 688 464 0
FLAG 144 224 fb
SYMBOL Opamps/LTC6090 288 256 R0
SYMATTR InstName U1
SYMBOL npn 512 80 R0
SYMATTR InstName Q1
SYMBOL res 560 240 R90
WINDOW 0 0 56 VBottom 2
WINDOW 3 32 56 VTop 2
SYMATTR InstName R1
SYMATTR Value 1k
SYMBOL Misc/signal 96 368 R0
SYMATTR InstName V5
SYMATTR Value SINE(0 6V 40k)
SYMBOL pnp 512 432 M180
SYMATTR InstName Q2
SYMBOL voltage 1056 208 R0
SYMATTR InstName V6
SYMATTR Value 70V
SYMBOL voltage 1184 208 R0
SYMATTR InstName V7
SYMATTR Value -70V
SYMBOL cap 672 336 R0
SYMATTR InstName C1
SYMATTR Value 3e-10
TEXT 248 592 Left 2 !.tran 0 1s
