Version 4
SHEET 1 1036 1008
WIRE 272 128 224 128
WIRE 688 128 384 128
WIRE 272 144 272 128
WIRE 384 144 384 128
WIRE 480 208 480 176
WIRE 224 256 224 128
WIRE 272 256 224 256
WIRE 384 256 384 224
WIRE 384 256 352 256
WIRE 464 256 384 256
WIRE 672 288 624 288
WIRE 688 288 688 128
WIRE 688 288 672 288
WIRE 464 320 224 320
WIRE 480 384 480 368
WIRE 480 400 480 384
WIRE 272 704 176 704
WIRE 512 704 416 704
WIRE 512 720 512 704
WIRE 176 736 176 704
WIRE 272 736 272 704
WIRE 416 736 416 704
WIRE 576 800 512 800
WIRE 128 816 112 816
WIRE 176 816 128 816
WIRE 512 816 512 800
FLAG 272 816 0
FLAG 480 176 V+
FLAG -128 672 0
FLAG 672 288 Vo
FLAG -128 592 Vi
FLAG 272 144 0
FLAG 416 816 0
FLAG 480 384 V-
FLAG 224 320 Vi
FLAG 176 880 0
FLAG 128 816 V+
FLAG 512 880 0
FLAG 576 800 V-
SYMBOL Opamps/LTC6090 528 288 R0
SYMATTR InstName U1
SYMBOL voltage 272 720 R0
SYMATTR InstName V1
SYMATTR Value 100V
SYMBOL Misc/signal -128 576 R0
SYMATTR InstName V2
SYMATTR Value SINE(0 2 1k)
SYMBOL res 368 128 R0
SYMATTR InstName Rg
SYMATTR Value 500k
SYMBOL res 368 240 R90
WINDOW 0 0 56 VBottom 2
WINDOW 3 32 56 VTop 2
SYMATTR InstName Rf
SYMATTR Value 10K
SYMBOL voltage 416 720 R0
SYMATTR InstName V3
SYMATTR Value -100V
SYMBOL zener 192 880 R180
WINDOW 0 24 64 Left 2
WINDOW 3 24 0 Left 2
SYMATTR InstName D1
SYMATTR Value 1N5373B
SYMBOL res 160 720 R0
SYMATTR InstName R1
SYMATTR Value 1k
SYMBOL zener 496 816 R0
SYMATTR InstName D2
SYMATTR Value 1N5373B
SYMBOL res 528 816 R180
WINDOW 0 36 76 Left 2
WINDOW 3 36 40 Left 2
SYMATTR InstName R2
SYMATTR Value 1k
TEXT 816 72 Left 2 !.tran 1 startup uic
