Version 4
SHEET 1 1848 1632
WIRE 96 1024 16 1024
WIRE 128 1024 96 1024
WIRE 192 1024 128 1024
WIRE 352 1024 288 1024
WIRE 368 1024 352 1024
WIRE 480 1024 368 1024
WIRE 640 1024 480 1024
WIRE 1216 1024 1184 1024
WIRE 1232 1024 1216 1024
WIRE 1072 1040 1024 1040
WIRE 480 1056 480 1024
WIRE 1072 1056 1072 1040
WIRE 1184 1056 1184 1024
WIRE 128 1072 128 1024
WIRE 1024 1072 1024 1040
WIRE 1600 1088 1600 1040
WIRE 640 1120 640 1024
WIRE 1280 1120 1280 1088
WIRE 1536 1136 1488 1136
WIRE 16 1152 16 1024
WIRE 368 1152 368 1024
WIRE 1024 1152 1024 1136
WIRE 480 1168 480 1136
WIRE 512 1168 480 1168
WIRE 576 1168 512 1168
WIRE 1024 1168 1024 1152
WIRE 1072 1168 1024 1168
WIRE 1184 1168 1184 1136
WIRE 1184 1168 1152 1168
WIRE 1264 1168 1184 1168
WIRE 128 1184 128 1152
WIRE 192 1184 128 1184
WIRE 240 1184 240 1088
WIRE 240 1184 192 1184
WIRE 480 1184 480 1168
WIRE 240 1200 240 1184
WIRE 1456 1200 1424 1200
WIRE 1488 1200 1488 1136
WIRE 1488 1200 1456 1200
WIRE 1600 1200 1600 1184
WIRE 1600 1200 1568 1200
WIRE 1696 1200 1600 1200
WIRE 1760 1200 1696 1200
WIRE 1600 1216 1600 1200
WIRE 640 1232 640 1216
WIRE 736 1232 640 1232
WIRE 864 1232 736 1232
WIRE 1024 1232 944 1232
WIRE 1264 1232 1024 1232
WIRE 640 1264 640 1232
WIRE 1488 1264 1488 1200
WIRE 1536 1264 1488 1264
WIRE 1760 1264 1760 1200
WIRE 1024 1280 1024 1232
WIRE 240 1296 240 1264
WIRE 1280 1296 1280 1280
WIRE 1280 1312 1280 1296
WIRE 1760 1344 1760 1328
WIRE 1600 1360 1600 1312
WIRE 16 1376 16 1232
WIRE 240 1376 240 1360
WIRE 240 1376 16 1376
WIRE 368 1376 368 1216
WIRE 368 1376 240 1376
WIRE 480 1376 480 1264
WIRE 480 1376 368 1376
WIRE 560 1376 480 1376
WIRE 640 1376 640 1344
WIRE 640 1376 560 1376
WIRE 1024 1376 1024 1344
WIRE 1600 1376 1600 1360
WIRE 1760 1376 1760 1344
WIRE 16 1456 16 1376
WIRE 1024 1504 1024 1456
WIRE 1760 1520 1760 1456
FLAG 1280 1088 V+
FLAG 1072 1056 0
FLAG 1280 1296 V-
FLAG 1024 1232 Vi
FLAG 1600 1360 V-
FLAG 1600 1040 V+
FLAG 1696 1200 Vo
FLAG 1456 1200 Vfb
FLAG 1760 1520 0
FLAG 1216 1024 Vo
FLAG 352 1024 V+
FLAG 560 1376 V-
FLAG 512 1168 Vw
FLAG 736 1232 Vmid
FLAG 192 1184 Vclamp_fb
FLAG 96 1024 Vt
FLAG 1024 1504 0
FLAG 1760 1344 Vq
FLAG 1024 1152 Vk
FLAG 16 1456 0
SYMBOL Misc/signal 1024 1360 R0
SYMATTR InstName V2
SYMATTR Value SINE(0 1 30k)
SYMBOL res 1168 1040 R0
SYMATTR InstName Rg
SYMATTR Value 660k
SYMBOL res 1168 1152 R90
WINDOW 0 0 56 VBottom 2
WINDOW 3 32 56 VTop 2
SYMATTR InstName Rf
SYMATTR Value 10k
SYMBOL pnp 1536 1312 M180
SYMATTR InstName Q1
SYMBOL npn 1536 1088 R0
SYMATTR InstName Q2
SYMBOL res 1584 1184 R90
WINDOW 0 0 56 VBottom 2
WINDOW 3 32 56 VTop 2
SYMATTR InstName R3
SYMATTR Value 6.8k
SYMBOL Opamps/LTC6090-5 1328 1200 R0
SYMATTR InstName U2
SYMBOL res 464 1040 R0
SYMATTR InstName R2
SYMATTR Value 82k
SYMBOL res 464 1168 R0
SYMATTR InstName R7
SYMATTR Value 82k
SYMBOL npn 576 1120 R0
SYMATTR InstName Q5
SYMATTR Value 2SD1898
SYMBOL res 624 1248 R0
SYMATTR InstName R8
SYMATTR Value 510k
SYMBOL voltage 16 1136 R0
SYMATTR InstName V1
SYMATTR Value 140
SYMATTR SpiceLine Rser=200
SYMBOL npn 192 1088 R270
SYMATTR InstName Q3
SYMBOL res 112 1056 R0
SYMATTR InstName R1
SYMATTR Value 100
SYMBOL zener 256 1264 R180
WINDOW 0 24 64 Left 2
WINDOW 3 24 0 Left 2
SYMATTR InstName D1
SYMATTR Value 1N5378B
SYMBOL zener 256 1360 R180
WINDOW 0 24 64 Left 2
WINDOW 3 24 0 Left 2
SYMATTR InstName D2
SYMATTR Value 1N5373B
SYMBOL cap 1008 1072 R0
SYMATTR InstName C2
SYMATTR Value 4.7nF
SYMBOL cap 1008 1280 R0
SYMATTR InstName C3
SYMATTR Value 4.7nF
SYMBOL res 960 1216 R90
WINDOW 0 0 56 VBottom 2
WINDOW 3 32 56 VTop 2
SYMATTR InstName R5
SYMATTR Value 10k
SYMBOL res 1744 1360 R0
SYMATTR InstName R4
SYMATTR Value 5k
SYMBOL cap 1744 1264 R0
SYMATTR InstName C4
SYMATTR Value 4.5nF
TEXT 1616 984 Left 2 !.tran 0.1 uic
